/*--------------------------------*- C++ -*----------------------------------*\
  =========                 |
  \\      /  F ield         | OpenFOAM: The Open Source CFD Toolbox
   \\    /   O peration     | Website:  https://openfoam.org
    \\  /    A nd           | Version:  7
     \\/     M anipulation  |
\*---------------------------------------------------------------------------*/
FoamFile
{
    version     2.0;
    format      ascii;
    class       dictionary;
    location    "constant";
    object      chemistryProperties;
}
// * * * * * * * * * * * * * * * * * * * * * * * * * * * * * * * * * * * * * //


chemistry           on;
CanteraMechanismFile "ES80_H2-7-16.yaml";
transportModel "Mix";//"UnityLewis";
odeCoeffs
{
    //"relTol"   1e-15;
    //"absTol"   1e-24;
}
inertSpecie        "N2";
zeroDReactor
{
    constantProperty "pressure";//cvorcp "UV";
}

TorchSettings
{
    torch off;
    GPU   off;
    log  on;
    torchModel1 "ESH2-sub1.pt"; 
    torchModel2 "ESH2-sub2.pt"; 
    torchModel3 "ESH2-sub3.pt"; 
    coresPerNode 4;
}
loadbalancing
{
        active  false;
        //log   true;
}
// ************************************************************************* //
